output/s8_winter_peak_handoff/cases/npcc_ny_lite_s8_winter_peak_pf_solution.m
function mpc = npcc_ny_lite_s8_winter_peak_pf_solution
%NPCC_NY_LITE_S8_WINTER_PEAK_PF_SOLUTION

%% MATPOWER Case Format : Version 2
mpc.version = '2';

%%-----  Power Flow Data  -----%%
%% system MVA base
mpc.baseMVA = 100;

%% bus data
%	bus_i	type	Pd	Qd	Gs	Bs	area	Vm	Va	baseKV	zone	Vmax	Vmin
mpc.bus = [
	37	1	0	0	0	0	2	1.02893651	27.4636696	345	70	1.1	0.9;
	38	1	0	0	0	0	2	1.03277698	28.6357782	345	70	1.1	0.9;
	39	1	152.626753	38.2518701	0	0	2	1.00285995	22.2537636	345	71	1.1	0.9;
	40	1	0	0	0	0	2	1.05841393	27.47288	230	70	1.1	0.9;
	41	1	695.244198	107.404319	0	0	2	1.07480611	26.1712965	115	70	1.1	0.9;
	42	2	175.797462	14.6069874	0	0	2	1.1	27.6584718	115	70	1.1	0.9;
	43	1	0	0	0	0	2	1.05971766	35.583443	345	69	1.1	0.9;
	44	1	0	0	0	0	2	1.0577821	32.0569304	230	69	1.1	0.9;
	45	1	620.716579	35.6594548	0	0	2	1.04897316	27.1915015	115	69	1.1	0.9;
	46	1	7.80764059	-12.4811127	0	0	2	1.09084214	28.4805992	115	68	1.1	0.9;
	47	2	179.236271	29.3673241	0	0	2	1.09999999	30.8737356	230	68	1.1	0.9;
	48	2	0	0	0	0	2	1.03	28.570444	230	68	1.1	0.9;
	49	1	70.6082278	4.99244509	0	0	2	1.02526569	24.040832	115	68	1.1	0.9;
	50	2	0	0	0	0	2	1.1	44.3178398	345	67	1.1	0.9;
	51	2	534.620149	47.4527743	0	0	2	1.08300607	40.1307143	115	67	1.1	0.9;
	52	1	0	0	0	0	2	1.07074084	49.4462236	345	66	1.1	0.9;
	53	2	693.312159	162.457409	0	0	2	1.09999998	44.1053347	115	66	1.1	0.9;
	54	2	7.10145729	0	0	0	2	1.03	58.8140072	230	65	1.1	0.9;
	55	2	333.41342	46.8696181	0	0	2	1.08981247	55.6260824	230	65	1.1	0.9;
	56	2	70.5949333	15.623206	0	0	2	1.1	54.7149185	230	65	1.1	0.9;
	57	2	98.5045581	-2.13043719	0	0	2	1.0934149	53.5235715	115	65	1.1	0.9;
	58	1	34.4765953	13.4927689	0	0	2	1.08465841	53.2988835	230	65	1.1	0.9;
	59	1	289.357139	70.3044272	0	0	2	1.07831944	52.5228586	115	65	1.1	0.9;
	60	2	0	0	0	0	2	1.09860245	53.975948	230	65	1.1	0.9;
	61	2	97.2732509	2.84058292	0	0	2	1.05145966	53.9221049	115	65	1.1	0.9;
	62	1	0	0	0	0	2	1.07458575	52.9336298	230	65	1.1	0.9;
	63	1	0	0	0	0	2	1.07855657	44.7958558	230	67	1.1	0.9;
	64	1	104.583696	15.8175914	0	0	2	1.07667311	42.356116	115	67	1.1	0.9;
	65	2	66.5532606	0	0	0	2	1.07077891	43.1876432	115	67	1.1	0.9;
	66	1	0	0	0	0	2	1.10845722	39.9185176	345	67	1.1	0.9;
	67	1	0	0	0	0	2	1.10517043	40.6074222	230	67	1.1	0.9;
	68	2	154.315802	25.9408499	0	0	2	1.1	39.5558721	115	67	1.1	0.9;
	69	1	0	0	0	0	2	1.09178341	36.1744895	345	67	1.1	0.9;
	70	1	0	0	0	0	2	1.10130309	38.3845273	230	67	1.1	0.9;
	71	2	271.332524	33.5332938	0	0	2	1.1	36.6251227	115	67	1.1	0.9;
	72	2	0	0	0	0	2	1.08884679	38.4545358	115	67	1.1	0.9;
	73	1	381.566883	95.6296752	0	0	3	0.978296156	12.6974417	345	71	1.1	0.9;
	74	1	252.133161	0	0	0	3	0.976828899	6.93453253	345	73	1.1	0.9;
	75	1	0	0	0	0	3	0.99163889	8.04990784	138	71	1.1	0.9;
	76	1	228.94013	57.3778051	0	0	3	0.988497134	7.34650428	345	71	1.1	0.9;
	77	1	0	0	0	0	3	0.980854954	6.85564749	345	73	1.1	0.9;
	78	2	450.569665	116.937984	0	0	3	0.974721326	4.87110535	345	72	1.1	0.9;
	79	3	1556.79975	390.170795	0	0	3	0.980677999	5.29361657	22	74	1.1	0.9;
	80	2	1471.97889	45.479528	0	0	3	0.952721175	-2.60582909	138	75	1.1	0.9;
	81	1	345.955499	86.7046211	0	0	3	0.966310311	4.11790459	345	74	1.1	0.9;
	82	2	1556.79975	390.170795	0	0	3	0.997173511	-0.804890962	22	74	1.1	0.9;
	9001	1	0	0	0	0	3	0.985177848	16.7352833	345	71	1.1	0.9;
	9002	1	0	0	0	0	3	0.977109409	8.73475262	345	73	1.1	0.9;
	9003	1	0	0	0	0	3	0.963305239	5.41362788	345	75	1.1	0.9;
];

%% generator data
%	bus	Pg	Qg	Qmax	Qmin	Vg	mBase	status	Pmax	Pmin	Pc1	Pc2	Qc1min	Qc1max	Qc2min	Qc2max	ramp_agc	ramp_10	ramp_30	ramp_q	apf
mpc.gen = [
	42	302.288736	246.831792	999	-999	1.1	400	1	462.736805	0	0	0	0	0	0	0	0	0	0	0	0;
	47	353.523449	252.677441	999	-999	1.09999999	450	1	944.920662	0	0	0	0	0	0	0	0	0	0	0	0;
	48	14.9876769	-182.471449	999	-999	1.1	500	1	40.0600457	0	0	0	0	0	0	0	0	0	0	0	0;
	50	1310.21462	495.000653	999	-999	1.1	700	1	1713.606	0	0	0	0	0	0	0	0	0	0	0	0;
	51	347.192282	-117.088794	999	-999	1.08300607	150	1	454.086504	0	0	0	0	0	0	0	0	0	0	0	0;
	53	286.871683	343.892599	999	-999	1.09999998	100	1	288.8	0	0	0	0	0	0	0	0	0	0	0	0;
	54	246.416034	-132.695032	999	-999	1.05172033	650	1	247.044497	0	0	0	0	0	0	0	0	0	0	0	0;
	54	246.416034	-1328.14577	9999	-9999	1.05172033	650	1	247.044497	0	0	0	0	0	0	0	0	0	0	0	0;
	55	246.416034	468.422705	999	-999	1.08981247	1200	1	247.044497	0	0	0	0	0	0	0	0	0	0	0	0;
	56	388.510148	980.774258	999	-999	1.1	500	1	389.501011	0	0	0	0	0	0	0	0	0	0	0	0;
	57	11.2346026	38.5626138	999	-999	1.0934149	350	1	11.2632555	0	0	0	0	0	0	0	0	0	0	0	0;
	60	46.7184185	104.82394	999	-999	1.09860245	450	1	46.8375699	0	0	0	0	0	0	0	0	0	0	0	0;
	61	103.799939	-101.34984	999	-999	1.05145966	200	1	104.064672	0	0	0	0	0	0	0	0	0	0	0	0;
	65	47.1804671	-43.9174955	999	-999	1.07077891	100	1	61.7064794	0	0	0	0	0	0	0	0	0	0	0	0;
	68	114.644413	8.99784915	999	-999	1.1	100	1	149.941354	0	0	0	0	0	0	0	0	0	0	0	0;
	71	20.0938219	233.214867	999	-999	1.1	100	1	26.2803461	0	0	0	0	0	0	0	0	0	0	0	0;
	72	80.7254177	-134.681591	999	-999	1.08884679	100	1	105.579313	0	0	0	0	0	0	0	0	0	0	0	0;
	78	1.36785828	-72.7042744	999	-999	0.974721326	100	1	565.099092	0	0	0	0	0	0	0	0	0	0	0	0;
	79	544.972073	481.854235	999	-999	0.980677999	1150	1	963.227692	0	0	0	0	0	0	0	0	0	0	0	0;
	80	89.2887474	79.449277	999	-999	0.952721175	800	1	222.491805	0	0	0	0	0	0	0	0	0	0	0	0;
	82	124.192525	811.414979	999	-999	0.997173511	500	1	219.532045	0	0	0	0	0	0	0	0	0	0	0	0;
	79	1132.3762	0	0	-0	0.980677999	100	1	2001.67332	0	0	0	0	0	0	0	0	0	0	0	0;
	82	180.388876	0	0	-0	0.997173511	100	1	318.86894	0	0	0	0	0	0	0	0	0	0	0	0;
	81	392.479043	0	0	-0	0.950759831	100	1	693.775465	0	0	0	0	0	0	0	0	0	0	0	0;
	43	128.317	0	0	-0	1.0573451	100	1	400	0	0	0	0	0	0	0	0	0	0	0	0;
	44	64.1584999	0	0	-0	1.06365915	100	1	200	0	0	0	0	0	0	0	0	0	0	0	0;
	38	408.905894	0	0	-0	1.0319714	100	1	625.943955	0	0	0	0	0	0	0	0	0	0	0	0;
	42	266.097368	0	0	-0	1.1	100	1	407.335872	0	0	0	0	0	0	0	0	0	0	0	0;
	41	141.138268	0	0	-0	1.06962395	100	1	216.051289	0	0	0	0	0	0	0	0	0	0	0	0;
	37	297.846071	0	0	-0	1.02100313	100	1	455.936074	0	0	0	0	0	0	0	0	0	0	0	0;
	73	321.224543	0	0	-0	0.977954429	100	1	788.260433	0	0	0	0	0	0	0	0	0	0	0	0;
	76	209.26751	0	0	-0	0.972794501	100	1	513.526446	0	0	0	0	0	0	0	0	0	0	0	0;
	39	366.031438	0	0	-0	0.999498185	100	1	898.213121	0	0	0	0	0	0	0	0	0	0	0	0;
	80	183.17853	0	0	-0	0.952721175	100	1	456.448577	0	0	0	0	0	0	0	0	0	0	0	0;
	9003	684.634733	0	0	-0	0.952721175	100	1	1705.98896	0	0	0	0	0	0	0	0	0	0	0	0;
	48	-164.08012	-91.3270515	500	-500	1.03	100	1	-164.07912	-164.08112	0	0	0	0	0	0	0	0	0	0	0;
	37	38.1333324	9.55711397	500	-500	1.03	100	1	38.1343324	38.1323324	0	0	0	0	0	0	0	0	0	0	0;
	73	57.1999986	14.335671	500	-500	1.03	100	1	57.2009986	57.1989986	0	0	0	0	0	0	0	0	0	0	0;
	54	877.91671	-99.620895	750	-750	1.03	100	1	877.91771	877.91571	0	0	0	0	0	0	0	0	0	0	0;
	66	228.438694	57.2521333	750	-750	1.03	100	1	228.439694	228.437694	0	0	0	0	0	0	0	0	0	0	0;
	67	97.9022973	24.5366286	500	-500	1.03	100	1	97.9032973	97.9012973	0	0	0	0	0	0	0	0	0	0	0;
	75	163.170495	40.894381	500	-500	1.03	100	1	163.171495	163.169495	0	0	0	0	0	0	0	0	0	0	0;
	81	163.170495	40.894381	500	-500	1.03	100	1	163.171495	163.169495	0	0	0	0	0	0	0	0	0	0	0;
];

%% branch data
%	fbus	tbus	r	x	b	rateA	rateB	rateC	ratio	angle	status	angmin	angmax	Pf	Qf	Pt	Qt
mpc.branch = [
	37	38	0.0016	0.0163	0.25	2500	0	0	0	0	1	-360	360	-134.3107	-22.9289	134.5847	-0.8461;
	37	39	0.0008	0.0074	0.48	2500	0	0	0	0	1	-360	360	1296.4836	254.6213	-1283.1898	-181.2000;
	37	40	0.0009	0.0315	0.06	2500	0	0	0	0	1	-360	360	-3.3041	-99.3686	3.3829	95.5881;
	37	43	0.0013	0.0188	1.31	2500	0	0	0	0	1	-360	360	-822.8894	-122.7667	831.2392	100.6154;
	38	69	0.0043	0.0485	0.79	2500	0	0	0	0	1	-360	360	-311.9222	-120.0321	316.0892	77.8166;
	39	73	0.0019	0.0183	0.29	2500	0	0	0	0	1	-360	360	902.0225	100.7742	-886.3999	21.2356;
	39	73	0.0019	0.0183	0.29	2500	0	0	0	0	1	-360	360	902.0225	100.7742	-886.3999	21.2356;
	40	44	0.008	0.053	0.4	2500	0	0	0	0	1	-360	360	-163.8817	10.3510	165.8763	-41.9198;
	41	42	0.0018	0.0089	0.07	2500	0	0	0	0	1	-360	360	-389.4641	-225.0539	392.5886	232.2248;
	41	45	0.0776	0.2241	0.13	2500	0	0	0	0	1	-360	360	-4.1430	6.3953	4.2844	-20.6480;
	43	44	0	0.011	0	2500	0	0	0	0	1	-360	360	626.8192	37.9430	-626.8192	0.6835;
	43	50	0.0025	0.0268	0.4	2500	0	0	0	0	1	-360	360	-664.8707	-69.2792	674.7604	128.6365;
	43	50	0.0025	0.0268	0.4	2500	0	0	0	0	1	-360	360	-664.8707	-69.2792	674.7604	128.6365;
	44	45	0	0.0205	0	2500	0	0	0	0	1	-360	360	459.0745	64.9569	-459.0745	-25.5713;
	44	48	0.015	0.105	0.79	2500	0	0	0	0	1	-360	360	66.0269	-23.7206	-65.3863	-57.8971;
	45	46	0.1235	0.3548	0.16	2500	0	0	0	0	1	-360	360	-10.2893	-17.5183	10.4933	-0.2177;
	45	51	0.0605	0.1896	0.08	2500	0	0	0	0	1	-360	360	-122.8149	31.1733	131.8041	-12.0953;
	45	71	0.1751	0.5575	0.12	2500	0	0	0	0	1	-360	360	-32.8223	-3.0952	34.5562	-5.2463;
	46	47	0.0632	0.121	0.05	2500	0	0	0	0	1	-360	360	-35.5660	8.2107	36.3043	-12.7970;
	46	49	0.164	0.578	0.06	2500	0	0	0	0	1	-360	360	17.2650	4.4881	-16.7647	-9.4482;
	47	48	0	0.033	0	2500	0	0	0	0	1	-360	360	137.9829	236.1071	-137.9829	-215.7110;
	50	51	0	0.0207	0	2500	0	0	0	0	1	-360	360	420.2038	105.6668	-420.2038	-73.5499;
	50	52	0.002	0.022	1.28	2500	0	0	0	0	1	-360	360	-459.5099	132.0608	463.7254	-236.5050;
	51	53	0.0844	0.2161	0.22	2500	0	0	0	0	1	-360	360	-35.5909	-6.1923	36.5348	-17.6028;
	51	72	0.0051	0.0232	0.3	2500	0	0	0	0	1	-360	360	136.5627	-72.7041	-135.6197	41.6164;
	52	53	0.0014	0.0388	0	2500	0	0	0	0	1	-360	360	279.7555	-77.6600	-278.7262	106.1873;
	53	55	0.03	0.107	0.3	789.941803	0	0	0	0	1	-360	360	-198.8651	70.6524	210.6254	-64.6727;
	53	65	0.035	0.08	0.05	2500	0	0	0	0	1	-360	360	34.6160	22.1983	-34.0853	-26.8769;
	54	56	0.01	0.008	0.07	789.941803	0	0	0	0	1	-360	360	-26.8951	-835.1155	92.1183	879.3459;
	54	62	0.008	0.069	0.13	789.941803	0	0	0	0	1	-360	360	155.5138	-83.0412	-153.2528	88.1400;
	55	57	0.0074	0.04	0.02	789.941803	0	0	0	0	1	-360	360	104.2799	-28.2889	-103.5566	29.8153;
	55	59	0.016	0.0817	0.04	789.941803	0	0	0	0	1	-360	360	78.2805	-0.2657	-77.4544	-0.2169;
	56	58	0.002	0.015	0.11	2500	0	0	0	0	1	-360	360	208.1863	80.5209	-207.3443	-87.3315;
	57	59	0.014	0.068	0.03	2500	0	0	0	0	1	-360	360	33.8973	15.7652	-33.7266	-18.4738;
	58	60	0.0035	0.0344	0.27	2500	0	0	0	0	1	-360	360	-44.9167	-55.0373	45.0223	23.8994;
	58	62	0.002	0.018	0.03	2500	0	0	0	0	1	-360	360	47.4520	53.7911	-47.3613	-56.4712;
	59	61	0.068	0.143	0.06	2500	0	0	0	0	1	-360	360	-7.8438	20.7322	8.2228	-26.7401;
	62	63	0.0129	0.0803	0.15	2500	0	0	0	0	1	-360	360	200.6141	-31.6688	-196.0589	42.6388;
	63	64	0	0.046	0	2500	0	0	0	0	1	-360	360	107.4629	6.7044	-107.4629	-2.1201;
	63	67	0.012	0.093	0.18	2500	0	0	0	0	1	-360	360	88.5960	-49.3433	-87.6304	35.3644;
	64	65	0.035	0.08	0.05	2500	0	0	0	0	1	-360	360	-14.5851	11.5674	14.7125	-17.0406;
	64	68	0.0988	0.231	0.13	2500	0	0	0	0	1	-360	360	17.4644	-25.2648	-16.9365	11.0991;
	66	67	0	0.0231	0	2500	0	0	0	0	1	-360	360	-63.7620	16.1551	63.7620	-15.3417;
	66	69	0.0018	0.0274	0.27	2500	0	0	0	0	1	-360	360	292.2007	41.0971	-290.9012	-53.9937;
	67	68	0	0.049	0	2500	0	0	0	0	1	-360	360	45.5312	12.0795	-45.5312	-11.1893;
	67	70	0.007	0.0619	0.12	2500	0	0	0	0	1	-360	360	76.2395	-7.5656	-75.9064	-4.0943;
	68	71	0.1203	0.2048	0.07	2500	0	0	0	0	1	-360	360	22.7963	-16.8528	-22.1213	9.5319;
	69	71	0	0.0375	0	2500	0	0	0	0	1	-360	360	-25.1880	-23.8229	25.1880	24.2010;
	70	71	0	0.049	0	2500	0	0	0	0	1	-360	360	75.9064	4.0943	-75.9064	-1.7598;
	71	72	0.0053	0.0135	0.1	2500	0	0	0	0	1	-360	360	-212.9552	172.9547	216.3452	-176.2979;
	73	74	0.0022	0.0196	0.34	2500	0	0	0	0	1	-360	360	487.0271	-38.9709	-481.5629	55.1611;
	73	74	0.0022	0.0196	0.34	2500	0	0	0	0	1	-360	360	487.0271	-38.9709	-481.5629	55.1611;
	74	77	0.0003	0.0043	0.08	2500	0	0	0	0	1	-360	360	24.1808	-96.9424	-24.1517	89.6945;
	74	78	0.0005	0.0045	0.32	2500	0	0	0	0	1	-360	360	759.0683	-40.1387	-756.0458	36.8724;
	74	78	0.0005	0.0045	0.32	2500	0	0	0	0	1	-360	360	759.0683	-40.1387	-756.0458	36.8724;
	76	77	0.003	0.0068	1.37	2500	0	0	0	0	1	-360	360	143.4691	-18.6129	-142.7655	-112.6276;
	78	79	0.0003	0.0153	0	2500	0	0	0	0	1	-360	360	-46.7937	-36.8609	46.8049	37.4324;
	78	80	0.0135	0.0582	0.5	2500	0	0	0	0	1	-360	360	208.1258	-21.6164	-201.9702	1.7099;
	78	81	0.0005	0.0276	0	2500	0	0	0	0	1	-360	360	45.3890	29.1769	-45.3737	-28.3312;
	78	82	0.0005	0.0308	0	2500	0	0	0	0	1	-360	360	311.1269	-60.6325	-310.5981	93.2051;
	40	41	0	0.0161	0	2500	0	0	1	0	1	-360	360	160.4988	-105.9391	-160.4988	111.2543;
	49	48	0.0156	0.1536	0	2500	0	0	1	0	1	-360	360	-53.8435	4.4557	54.2767	-0.1904;
	54	52	0.002	0.0233	0	789.941803	0	0	1	0	1	-360	360	754.8454	-181.7683	-743.4809	314.1650;
	54	55	0	0.013	0	2500	0	0	1	0	1	-360	360	480.1832	-460.5367	-480.1832	514.7804;
	56	57	0	0.142	0	2500	0	0	1	0	1	-360	360	17.6106	5.2842	-17.6106	-4.8875;
	58	59	0	0.0093	0	2500	0	0	1	0	1	-360	360	170.3324	75.0850	-170.3324	-72.3459;
	60	61	0	0.064	0	2500	0	0	1	0	1	-360	360	1.6961	80.9245	-1.6961	-77.4504;
	75	76	0.0001	0.0074	0	2500	0	0	1	0	1	-360	360	163.1705	40.8944	-163.1417	-38.7649;
	38	39	0.00131	0.01997	0.51614	1216	2454	1804	0	0	1	-360	360	586.2433	120.8781	-581.7518	-105.8901;
	73	9002	0.000405	0.006185	0.63943	2432	4908	3608	0	0	1	-360	360	1067.1312	-44.7553	-1062.3114	57.2376;
	9002	74	0.000185	0.002815	0.29107	2432	4908	3608	0	0	1	-360	360	1062.3114	-57.2376	-1060.1211	62.7846;
	74	78	0.0009	0.015	0	5000	5000	5000	0	0	1	-360	360	228.7963	4.1130	-228.3024	4.1187;
	77	78	0.0012	0.02	0	5000	5000	5000	0	0	1	-360	360	166.9172	22.9332	-166.5631	-17.0319;
	78	81	0.00072	0.012	0	5000	5000	5000	0	0	1	-360	360	106.9340	62.5821	-106.8176	-60.6432;
	78	79	0.0006	0.01	0	5000	5000	5000	0	0	1	-360	360	-73.6913	-53.3796	73.7436	54.2511;
	78	82	0.0006	0.01	0	5000	5000	5000	0	0	1	-360	360	947.6196	-228.0488	-941.6202	328.0391;
	78	9003	0.0012	0.02	0	5000	5000	5000	0	0	1	-360	360	-40.9549	58.3053	41.0190	-57.2366;
	9003	80	0.0012	0.02	0	5000	5000	5000	0	0	1	-360	360	643.6157	57.2366	-638.2165	32.7498;
	81	80	0.0018	0.03	0	5000	5000	5000	0	0	1	-360	360	361.8854	43.1641	-359.3249	-0.4899;
	39	9001	0.0021	0.035	0	5000	5000	5000	0	0	1	-360	360	274.3013	47.2899	-272.6835	-20.3272;
	9001	73	0.0015	0.025	0	5000	5000	5000	0	0	1	-360	360	272.6835	20.3272	-271.5280	-1.0682;
];

%%-----  OPF Data  -----%%
%% generator cost data
%	1	startup	shutdown	n	x1	y1	...	xn	yn
%	2	startup	shutdown	n	c(n-1)	...	c0
mpc.gencost = [
	2	0	0	3	0	26.0833523	4319.96344;
	2	0	0	3	0	0	4974.59732;
	2	0	0	3	0	0	242.60274;
	2	0	0	3	0	2.14	47967.4763;
	2	0	0	3	0	25.4039338	5153.95508;
	2	0	0	3	0	2.14	19425.985;
	2	0	0	3	0	0	0;
	2	0	0	3	0	0	0;
	2	0	0	3	0	0	0;
	2	0	0	3	0	0	8378.83562;
	2	0	0	3	0	0	331.917808;
	2	0	0	3	0	25.0345853	3069.53459;
	2	0	0	3	0	26.3115917	3912.3145;
	2	0	0	3	0	84.6059873	0;
	2	0	0	3	0	26.5041754	6348.61943;
	2	0	0	3	0	2.14	23130.9005;
	2	0	0	3	0	26.0711283	1544.49986;
	2	0	0	3	0.5	500	0;
	2	0	0	3	0	26.6023139	2597.66301;
	2	0	0	3	0	33.8499079	4945.89108;
	2	0	0	3	0	27.6411935	3083.3164;
	2	0	0	3	0.02	180	0;
	2	0	0	3	0.02	180	0;
	2	0	0	3	0.02	180	0;
	2	0	0	3	0.02	180	0;
	2	0	0	3	0.02	180	0;
	2	0	0	3	0.02	180	0;
	2	0	0	3	0.02	180	0;
	2	0	0	3	0.02	180	0;
	2	0	0	3	0.02	180	0;
	2	0	0	3	0.02	180	0;
	2	0	0	3	0.02	180	0;
	2	0	0	3	0.02	180	0;
	2	0	0	3	0.02	180	0;
	2	0	0	3	0.02	180	0;
	2	0	0	2	0	0	0;
	2	0	0	2	0	0	0;
	2	0	0	2	0	0	0;
	2	0	0	2	0	0	0;
	2	0	0	2	0	0	0;
	2	0	0	2	0	0	0;
	2	0	0	2	0	0	0;
	2	0	0	2	0	0	0;
];

%% bus names
mpc.bus_name = {
	'NEW SEATHED ';
	'GILBOA      ';
	'LEEDS       ';
	'NEW SEATHED ';
	'ROTTERDAM   ';
	'ALBANY      ';
	'EDIC        ';
	'PORTER      ';
	'PORTER      ';
	'COLTON      ';
	'MOSES W     ';
	'MOSES E     ';
	'PLATTSBURGH ';
	'CLAY        ';
	'CLAY        ';
	'ROCHESTER   ';
	'ROCHESTER   ';
	'NIAGARA W   ';
	'NIAGARA E   ';
	'HUNTLEY     ';
	'HUNTLEY     ';
	'GARDENVILLE ';
	'GARDENVILLE ';
	'DUNKIRK     ';
	'DUNKIRK     ';
	'STOLLE RD   ';
	'MEYER       ';
	'MEYER       ';
	'GESONIDGE   ';
	'WATERCURE   ';
	'WRHL        ';
	'HILLSIDE    ';
	'BINGHAMTON  ';
	'BINGHAMTON  ';
	'BINGHAMTON  ';
	'LAPEER      ';
	'PLEASANT VLY';
	'MILLWOOD    ';
	'RAMAPO      ';
	'RAMAPO      ';
	'BUCHANAN    ';
	'CE UG       ';
	'RAV A-3     ';
	'NORTHPORT   ';
	'GOETHALS    ';
	'AK-3        ';
	'KNICKERBOCKER';
	'WOOD STREET';
	'EAST GARDEN CITY';
};
